Version 4
SHEET 1 880 680
WIRE -336 16 -464 16
WIRE -96 16 -160 16
WIRE 48 16 -16 16
WIRE 128 16 48 16
WIRE 240 16 208 16
WIRE 560 16 240 16
WIRE -336 80 -336 16
WIRE -176 80 -336 80
WIRE 384 80 160 80
WIRE 528 80 384 80
WIRE -336 112 -336 80
WIRE 384 128 384 80
WIRE 160 144 160 80
WIRE 48 160 48 16
WIRE 128 160 48 160
WIRE 592 160 528 160
WIRE 608 160 592 160
WIRE -464 176 -464 16
WIRE 240 176 240 16
WIRE 240 176 192 176
WIRE 528 176 528 160
WIRE 128 192 48 192
WIRE -336 224 -336 192
WIRE -160 224 -160 16
WIRE -160 224 -336 224
WIRE 160 256 160 208
WIRE 384 256 384 208
WIRE 384 256 160 256
WIRE 528 256 384 256
WIRE -176 336 -176 80
WIRE -96 336 -176 336
WIRE 48 336 48 192
WIRE 48 336 -16 336
WIRE 128 336 48 336
WIRE 592 336 592 160
WIRE 592 336 208 336
WIRE -464 384 -464 256
WIRE -336 384 -336 224
WIRE -336 384 -464 384
WIRE 384 384 384 256
WIRE 384 384 -336 384
WIRE 384 464 384 384
FLAG 560 16 Vout
FLAG -336 16 Vsense
FLAG 384 80 Vmicro
FLAG 608 160 Vdivider
FLAG 48 16 OpAmp-
FLAG 48 336 OpAmp+
FLAG 384 464 0
SYMBOL voltage 384 112 R0
WINDOW 123 0 0 Left 0
WINDOW 39 0 0 Left 0
SYMATTR InstName V1
SYMATTR Value 5
SYMBOL res 0 0 R90
WINDOW 0 0 56 VBottom 2
WINDOW 3 32 56 VTop 2
SYMATTR InstName R1
SYMATTR Value 290
SYMBOL res 224 0 R90
WINDOW 0 0 56 VBottom 2
WINDOW 3 32 56 VTop 2
SYMATTR InstName R2
SYMATTR Value 14900
SYMBOL res 0 320 R90
WINDOW 0 0 56 VBottom 2
WINDOW 3 32 56 VTop 2
SYMATTR InstName R3
SYMATTR Value 290
SYMBOL res 224 320 R90
WINDOW 0 0 56 VBottom 2
WINDOW 3 32 56 VTop 2
SYMATTR InstName R4
SYMATTR Value 14900
SYMBOL res 544 176 R180
WINDOW 0 36 76 Left 2
WINDOW 3 36 40 Left 2
SYMATTR InstName R5
SYMATTR Value 981
SYMBOL res 544 272 R180
WINDOW 0 36 76 Left 2
WINDOW 3 36 40 Left 2
SYMATTR InstName R6
SYMATTR Value 1000
SYMBOL res -352 96 R0
SYMATTR InstName RSense
SYMATTR Value .0034
SYMBOL Opamps\\UniversalOpamp2 160 176 R0
SYMATTR InstName U1
SYMBOL current -464 256 R180
WINDOW 0 24 80 Left 2
WINDOW 3 24 0 Left 2
SYMATTR InstName I1
SYMATTR Value 0
TEXT -512 488 Left 2 !.dc I1 -3 3 .5
